/*--------------------------------*- C++ -*----------------------------------*\
  =========                 |
  \\      /  F ield         | OpenFOAM: The Open Source CFD Toolbox
   \\    /   O peration     | Website:  https://openfoam.org
    \\  /    A nd           | Version:  7
     \\/     M anipulation  |
\*---------------------------------------------------------------------------*/


FoamFile
{
    version     2.0;
    format      ascii;
    class       dictionary;
    location    "system";
	object      fvSolution;
}
// *  * *  *  *  *  *  *  *  *

solvers
{
    alpha.water
    {
        nAlphaCorr      1;
        nAlphaSubCycles 3;
        cAlpha          1.5;
    }

    "pcorr.*"
    {
        solver          PCG;
        preconditioner
        {
            preconditioner  GAMG;
            tolerance       1e-05;
            relTol          0;
            smoother        DICGaussSeidel;
            cacheAgglomeration no;
        }

        tolerance       1e-05;
        relTol          0;
        maxIter         100;
    }

    p_rgh
    {
        solver          GAMG;
        tolerance       1e-08;
        relTol          0.01;
        smoother        DIC;
    }

    p_rghFinal
    {
        solver          PCG;
        preconditioner
        {
            preconditioner  GAMG;
            tolerance       2e-09;
            relTol          0;
            nVcycles        2;
            smoother        DICGaussSeidel;
            nPreSweeps      2;
        }

        tolerance       2e-09;
        relTol          0;
        maxIter         20;
    }

    U
    {
        solver          smoothSolver;
        smoother        GaussSeidel;
        tolerance       1e-06;
        relTol          0;
        nSweeps         1;
    }
}

PIMPLE
{
    momentumPredictor no;
    nCorrectors     2;
    nNonOrthogonalCorrectors 0;
    correctPhi      no;

    pRefPoint       (0 0 205E-6);
    pRefValue       1e5;
}

relaxationFactors
{
    equations
    {
        ".*"            1;
    }
}


// ************************************************************************* //



/*

solvers
{
    "alpha.*"
    {
        nAlphaCorr      1;
        nAlphaSubCycles 3;
        alphaOuterCorrectors yes;
        cAlpha          1.5;

        MULESCorr       yes;
        nLimiterIter    3;

        solver          smoothSolver;
        smoother        symGaussSeidel;
        tolerance       1e-8;
        relTol          0;
    }

    pcorr
    {
        solver          PCG;
        preconditioner  DIC;
        tolerance       1e-10;
        relTol          0;
    }

    p_rgh
    {
        solver          PCG;
        preconditioner  DIC;
        tolerance       1e-07;
        relTol          0.05;
    }


    p_rghFinal
    {
        $p_rgh;
        tolerance       1e-07;
        relTol          0;
    }

    "(pcorrFinal)"
    {
        $p;
        tolerance       1e-07;
        relTol          0;
                solver          PCG;
                        preconditioner  DIC;
    }


    U
    {
        solver          PBiCG;
        preconditioner  DILU;
        tolerance       1e-06;
        relTol          0;
    }
}

PIMPLE
{
    momentumPredictor no;
    nCorrectors     3;
    nNonOrthogonalCorrectors 0;
    nAlphaCorr      1;
    nAlphaSubCycles 2;
    cAlpha          1;
 
}

relaxationFactors
{
    fields
    {
    }
    equations
    {
        ".*" 1;
    }
}
  
*/
 


// ************************************************************************* //
